control
1900 1 1 0 0 0
#==========================================================================================
# MOM6 ocean diagnostics files output files
# See GFDL docs for help with the structure:
#      https://mom6.readthedocs.io/en/dev-gfdl/api/generated/pages/Diagnostics.html
# For a list of available diagnostics, see available_diags.0000
#
# Note that this is a very limited diag_table for annual output during spin up -- JCG
#==========================================================================================
# Set the format for each output file by specifying the following:
#
# "file_name",  output_freq,  "output_freq_units",  file_format,  "time_axis_units",  "time_axis_name", new_file_freq, "new_file_freq_units"
#------------------------------------------------------------------------------------------
# hist_control_ocean_static  is  a  protected  name.  Do  not  change  this  line. Output once.
"hist_control_ocean_static",                  -1, "months",   1, "days",   "time"
#
# Other files - annual output:
#"hist_control_dynamics3d_yearly_%4yr_%2mo",        1, "days",    1, "days",   "time",   12, "months"
"hist_control_dynamics2d_yearly_%4yr_%2mo",        1, "days",    1, "days",   "time",   12, "months"

# COBALT files - reduced output
#"hist_control_cobalt_3d_yearly_%4yr_%2mo",         1, "days",      1, "days",   "time",   12, "months"
"hist_control_cobalt_sfc_yearly_%4yr_%2mo",        1, "days",    1, "days",   "time",   12, "months"

#"hist_control_cobalt_phytolim_sfc_%4yr_%2mo",        1, "months",    1, "days",   "time",   12, "months"
#"hist_control_cobalt_phytolim_3d_yearly_%4yr_%2mo",  1, "months",    1, "days",   "time",   12, "months"

# COBALT files - Zooplankton
#"hist_control_zooplankton_dyn_yearly_%4yr_%2mo",   1, "days",      1, "days",   "time",   12, "months"
"hist_zooplankton_dynamics_%4yr_%2mo",             1, "days",      1, "days",   "time",   12, "months"
#"hist_phytoplankton_dynamics_%4yr_%2mo",           1, "days",      1, "days",   "time",   12, "months"

# COBALT - annual budgets
#"hist_control_diagz_doc_yearly_%4yr_%2mo",           1, "days",    1, "days",   "time",   12, "months"
#"hist_control_diagz_poc_yearly_%4yr_%2mo",           1, "days",    1, "days",   "time",   12, "months"
#"hist_control_diagz_dic_yearly_%4yr_%2mo",           1, "days",    1, "days",   "time",   12, "months"
#"hist_control_diagz_pic_yearly_%4yr_%2mo",           1, "days",    1, "days",   "time",   12, "months"
#"hist_control_cpump_yearly_%4yr_%2mo",               1, "days",    1, "days",   "time",   12, "months"

#
#==========================================================================================
# Below, list the parameters that should be included in each file
#==========================================================================================
#
#------------------------------------------------------------------------------------------
# STATIC FILE (hist_control_ocean_static)
#------------------------------------------------------------------------------------------
"ocean_model",     "geolat",      "geolat",      "hist_control_ocean_static",  "all",  "none",  "none",  2
"ocean_model",     "geolon",      "geolon",      "hist_control_ocean_static",  "all",  "none",  "none",  2
"ocean_model",     "geolat_c",    "geolat_c",    "hist_control_ocean_static",  "all",  "none",  "none",  2
"ocean_model",     "geolon_c",    "geolon_c",    "hist_control_ocean_static",  "all",  "none",  "none",  2
"ocean_model",     "geolat_u",    "geolat_u",    "hist_control_ocean_static",  "all",  "none",  "none",  2
"ocean_model",     "geolon_u",    "geolon_u",    "hist_control_ocean_static",  "all",  "none",  "none",  2
"ocean_model",     "geolat_v",    "geolat_v",    "hist_control_ocean_static",  "all",  "none",  "none",  2
"ocean_model",     "geolon_v",    "geolon_v",    "hist_control_ocean_static",  "all",  "none",  "none",  2
"ocean_model",     "dxCv",        "dxCv",        "hist_control_ocean_static",  "all",  "none",  "none",  2
"ocean_model",     "dyCv",        "dyCv",        "hist_control_ocean_static",  "all",  "none",  "none",  2
"ocean_model",     "dxCu",        "dxCu",        "hist_control_ocean_static",  "all",  "none",  "none",  2
"ocean_model",     "dyCu",        "dyCu",        "hist_control_ocean_static",  "all",  "none",  "none",  2
"ocean_model",     "dyt",         "dyt",         "hist_control_ocean_static",  "all",  "none",  "none",  2
"ocean_model",     "dxt",         "dxt",         "hist_control_ocean_static",  "all",  "none",  "none",  2
"ocean_model",     "Coriolis",    "Coriolis",    "hist_control_ocean_static",  "all",  "none",  "none",  2
"ocean_model",     "wet_c",       "wet_c",       "hist_control_ocean_static",  "all",  "none",  "none",  2
"ocean_model",     "wet_u",       "wet_u",       "hist_control_ocean_static",  "all",  "none",  "none",  2
"ocean_model",     "wet_v",       "wet_v",       "hist_control_ocean_static",  "all",  "none",  "none",  2
"ocean_model",     "wet",         "wet",         "hist_control_ocean_static",  "all",  "none",  "none",  2
"ocean_model",     "area_t",      "area_t",      "hist_control_ocean_static",  "all",  "none",  "none",  2
"ocean_model",     "area_u",      "area_u",      "hist_control_ocean_static",  "all",  "none",  "none",  2
"ocean_model",     "area_v",      "area_v",      "hist_control_ocean_static",  "all",  "none",  "none",  2
"ocean_model",     "area_q",      "area_q",      "hist_control_ocean_static",  "all",  "none",  "none",  2
"ocean_model",     "depth_ocean", "depth_ocean", "hist_control_ocean_static",  "all",  "none",  "none",  2

#==========================================================================================
# OCEAN MODEL DIAGNOSTICS
#==========================================================================================

#------------------------------------------------------------------------------------------
# Physics full depth 3d z coordinate (hist_control_dynamics3d_yearly_%4yr)
#------------------------------------------------------------------------------------------
#"ocean_model",     "geolat",        "geolat",       "hist_control_dynamics3d_yearly_%4yr_%2mo",  "all",  "none",  "none",  2
#"ocean_model",     "geolon",        "geolon",       "hist_control_dynamics3d_yearly_%4yr_%2mo",  "all",  "none",  "none",  2
#"ocean_model",     "geolat_c",      "geolat_c",     "hist_control_dynamics3d_yearly_%4yr_%2mo",  "all",  "none",  "none",  2
#"ocean_model",     "geolon_c",      "geolon_c",     "hist_control_dynamics3d_yearly_%4yr_%2mo",  "all",  "none",  "none",  2
#"ocean_model",     "geolat_u",      "geolat_u",     "hist_control_dynamics3d_yearly_%4yr_%2mo",  "all",  "none",  "none",  2
#"ocean_model",     "geolon_u",      "geolon_u",     "hist_control_dynamics3d_yearly_%4yr_%2mo",  "all",  "none",  "none",  2
#"ocean_model",     "geolat_v",      "geolat_v",     "hist_control_dynamics3d_yearly_%4yr_%2mo",  "all",  "none",  "none",  2
#"ocean_model",     "geolon_v",      "geolon_v",     "hist_control_dynamics3d_yearly_%4yr_%2mo",  "all",  "none",  "none",  2
#"ocean_model_z",   "temp",          "temp",         "hist_control_dynamics3d_yearly_%4yr_%2mo",  "all",  "mean",  "none",  2
#"ocean_model_z",   "salt",          "salt",         "hist_control_dynamics3d_yearly_%4yr_%2mo",  "all",  "mean",  "none",  2
#"ocean_model_z",   "u",             "u",            "hist_control_dynamics3d_yearly_%4yr_%2mo",  "all",  "mean",  "none",  2
#"ocean_model_z",   "v",             "v",            "hist_control_dynamics3d_yearly_%4yr_%2mo",  "all",  "mean",  "none",  2
#"ocean_model_z",   "Kd_interface",  "Kd_interface", "hist_control_dynamics3d_yearly_%4yr_%2mo",  "all",  "mean",  "none",  2
#"ocean_model_z",   "rhopot0",       "rhopot0",      "hist_control_dynamics3d_yearly_%4yr_%2mo",  "all",  "mean",  "none",  2
#"ocean_model_z",   "ea",            "ea",           "hist_control_dynamics3d_yearly_%4yr_%2mo",  "all",  "mean",  "none",  2
#"ocean_model_z",   "eb",            "eb",           "hist_control_dynamics3d_yearly_%4yr_%2mo",  "all",  "mean",  "none",  2
#"ocean_model_z",   "umo",           "umo",          "hist_control_dynamics3d_yearly_%4yr_%2mo",  "all",  "mean",  "none",  2
#"ocean_model_z",   "vmo",           "vmo",          "hist_control_dynamics3d_yearly_%4yr_%2mo",  "all",  "mean",  "none",  2
#"ocean_model_z",   "N2",            "N2",           "hist_control_dynamics3d_yearly_%4yr_%2mo",  "all",  "mean",  "none",  2

#------------------------------------------------------------------------------------------
# Physics surface 2d (hist_control_dynamics2d_yearly_%4yr)
#------------------------------------------------------------------------------------------
"ocean_model",     "geolat",           "geolat",           "hist_control_dynamics2d_yearly_%4yr_%2mo",  "all",  "none", "none", 2
"ocean_model",     "geolon",           "geolon",           "hist_control_dynamics2d_yearly_%4yr_%2mo",  "all",  "none", "none", 2
"ocean_model",     "geolat_c",         "geolat_c",         "hist_control_dynamics2d_yearly_%4yr_%2mo",  "all",  "none", "none", 2
"ocean_model",     "geolon_c",         "geolon_c",         "hist_control_dynamics2d_yearly_%4yr_%2mo",  "all",  "none", "none", 2
"ocean_model",     "geolat_u",         "geolat_u",         "hist_control_dynamics2d_yearly_%4yr_%2mo",  "all",  "none", "none", 2
"ocean_model",     "geolon_u",         "geolon_u",         "hist_control_dynamics2d_yearly_%4yr_%2mo",  "all",  "none", "none", 2
"ocean_model",     "geolat_v",         "geolat_v",         "hist_control_dynamics2d_yearly_%4yr_%2mo",  "all",  "none", "none", 2
"ocean_model",     "geolon_v",         "geolon_v",         "hist_control_dynamics2d_yearly_%4yr_%2mo",  "all",  "none", "none", 2
"ocean_model",     "SST",              "SST",              "hist_control_dynamics2d_yearly_%4yr_%2mo",  "all",  "mean", "none", 2
"ocean_model",     "SSS",              "SSS",              "hist_control_dynamics2d_yearly_%4yr_%2mo",  "all",  "mean", "none", 2
"ocean_model",     "SSH",              "SSH",              "hist_control_dynamics2d_yearly_%4yr_%2mo",  "all",  "mean", "none", 2
"ocean_model",     "zos",              "zos",              "hist_control_dynamics2d_yearly_%4yr_%2mo",  "all",  "mean", "none", 2
"ocean_model",     "SSU",              "SSU",              "hist_control_dynamics2d_yearly_%4yr_%2mo",  "all",  "mean", "none", 2
"ocean_model",     "SSV",              "SSV",              "hist_control_dynamics2d_yearly_%4yr_%2mo",  "all",  "mean", "none", 2
"ocean_model",     "taux",             "taux",             "hist_control_dynamics2d_yearly_%4yr_%2mo",  "all",  "mean", "none", 2
"ocean_model",     "tauy",             "tauy",             "hist_control_dynamics2d_yearly_%4yr_%2mo",  "all",  "mean", "none", 2
"ocean_model",     "SW",               "SW",               "hist_control_dynamics2d_yearly_%4yr_%2mo",  "all",  "mean", "none", 2
"ocean_model",     "SW",               "SW_max",           "hist_control_dynamics2d_yearly_%4yr_%2mo",  "all",  "max",  "none", 2
"ocean_model",     "LW",               "LW",               "hist_control_dynamics2d_yearly_%4yr_%2mo",  "all",  "mean", "none", 2
"ocean_model",     "latent",           "latent",           "hist_control_dynamics2d_yearly_%4yr_%2mo",  "all",  "mean", "none", 2
"ocean_model",     "sensible",         "sensible",         "hist_control_dynamics2d_yearly_%4yr_%2mo",  "all",  "mean", "none", 2
"ocean_model",     "MLD_003",          "MLD_003",          "hist_control_dynamics2d_yearly_%4yr_%2mo",  "all",  "mean", "none", 2
"ocean_model",     "MLD_003",          "MLD_003_max",      "hist_control_dynamics2d_yearly_%4yr_%2mo",  "all",  "max",  "none", 2
"ocean_model",     "MLD_0125",         "MLD_0125",         "hist_control_dynamics2d_yearly_%4yr_%2mo",  "all",  "mean", "none", 2
"ocean_model",     "evap",             "evap",             "hist_control_dynamics2d_yearly_%4yr_%2mo",  "all",  "mean", "none", 2
"ocean_model",     "precip",           "precip",           "hist_control_dynamics2d_yearly_%4yr_%2mo",  "all",  "mean", "none", 2
"ocean_model",     "PRCmE",            "PRCmE",            "hist_control_dynamics2d_yearly_%4yr_%2mo",  "all",  "mean", "none", 2
"ocean_model",     "ePBL_h_ML",        "ePBL_h_ML",        "hist_control_dynamics2d_yearly_%4yr_%2mo",  "all",  "mean", "none", 2
"ocean_model",     "hfrunoffds",       "hfrunoffds",       "hist_control_dynamics2d_yearly_%4yr_%2mo",  "all",  "mean", "none", 2
"ocean_model",     "net_heat_coupler", "net_heat_coupler", "hist_control_dynamics2d_yearly_%4yr_%2mo",  "all",  "mean", "none", 2
"ocean_model",     "net_heat_surface", "net_heat_surface", "hist_control_dynamics2d_yearly_%4yr_%2mo",  "all",  "mean", "none", 2
"ocean_model",     "salt_flux",        "salt_flux",        "hist_control_dynamics2d_yearly_%4yr_%2mo",  "all",  "mean", "none", 2

#==========================================================================================
# GENERIC OCEAN COBALT DIAGNOSTICS
#==========================================================================================

#------------------------------------------------------------------------------------------
# COBALT, 3D yearly (hist_control_cobalt_3d_yearly_%4yr)
#------------------------------------------------------------------------------------------
#"ocean_model",       "geolat",            "geolat",            "hist_control_cobalt_3d_yearly_%4yr_%2mo", "all", .false., "none", 2
#"ocean_model",       "geolon",            "geolon",            "hist_control_cobalt_3d_yearly_%4yr_%2mo", "all", .false., "none", 2
#"ocean_model",       "geolat_c",          "geolat_c",          "hist_control_cobalt_3d_yearly_%4yr_%2mo", "all", .false., "none", 2
#"ocean_model",       "geolon_c",          "geolon_c",          "hist_control_cobalt_3d_yearly_%4yr_%2mo", "all", .false., "none", 2
#"ocean_model",       "geolat_t",          "geolat_t",          "hist_control_cobalt_3d_yearly_%4yr_%2mo", "all", .false., "none", 2
#"ocean_model",       "geolon_t",          "geolon_t",          "hist_control_cobalt_3d_yearly_%4yr_%2mo", "all", .false., "none", 2
#"ocean_model_z",     "rhopot0",           "rhopot0",           "hist_control_cobalt_3d_yearly_%4yr_%2mo", "all", "mean",  "none", 2
#"ocean_model_z",       "thkcello",          "thkcello",          "hist_control_cobalt_3d_yearly_%4yr_%2mo", "all", "mean",  "none", 2
#"generic_cobalt_z",    "rho_dzt",           "rho_dzt",           "hist_control_cobalt_3d_yearly_%4yr_%2mo", "all", "mean",  "none", 2
#"generic_cobalt_z",    "chl",               "chl",               "hist_control_cobalt_3d_yearly_%4yr_%2mo", "all", "mean",  "none", 2
#"generic_cobalt_z",    "htotal",            "htotal",            "hist_control_cobalt_3d_yearly_%4yr_%2mo", "all", "mean",  "none", 2
#"generic_cobalt_z",    "no3",               "no3",               "hist_control_cobalt_3d_yearly_%4yr_%2mo", "all", "mean",  "none", 2
#"generic_cobalt_z",    "o2",                "o2",                "hist_control_cobalt_3d_yearly_%4yr_%2mo", "all", "mean",  "none", 2
#"generic_cobalt_z",    "ndi",               "ndi",               "hist_control_cobalt_3d_yearly_%4yr_%2mo", "all", "mean",  "none", 2
#"generic_cobalt_z",    "nlg",               "nlg",               "hist_control_cobalt_3d_yearly_%4yr_%2mo", "all", "mean",  "none", 2
#"generic_cobalt_z",    "nsm",               "nsm",               "hist_control_cobalt_3d_yearly_%4yr_%2mo", "all", "mean",  "none", 2
#"generic_cobalt_z",    "nbact",             "nbact",             "hist_control_cobalt_3d_yearly_%4yr_%2mo", "all", "mean",  "none", 2
#"generic_cobalt_z",    "nsmz",              "nsmz",              "hist_control_cobalt_3d_yearly_%4yr_%2mo", "all", "mean",  "none", 2
#"generic_cobalt_z",    "nmdz",              "nmdz",              "hist_control_cobalt_3d_yearly_%4yr_%2mo", "all", "mean",  "none", 2
#"generic_cobalt_z",    "nlgz",              "nlgz",              "hist_control_cobalt_3d_yearly_%4yr_%2mo", "all", "mean",  "none", 2
#"generic_cobalt_z",    "alk",               "alk",               "hist_control_cobalt_3d_yearly_%4yr_%2mo", "all", "mean",  "none", 2
#"generic_cobalt_z",    "dic",               "dic",               "hist_control_cobalt_3d_yearly_%4yr_%2mo", "all", "mean",  "none", 2
#"generic_cobalt_z",    "fed",               "fed",               "hist_control_cobalt_3d_yearly_%4yr_%2mo", "all", "mean",  "none", 2
#"generic_cobalt_z",    "ldon",              "ldon",              "hist_control_cobalt_3d_yearly_%4yr_%2mo", "all", "mean",  "none", 2
#"generic_cobalt_z",    "ndet",              "ndet",              "hist_control_cobalt_3d_yearly_%4yr_%2mo", "all", "mean",  "none", 2
#"generic_cobalt_z",    "nh4",               "nh4",               "hist_control_cobalt_3d_yearly_%4yr_%2mo", "all", "mean",  "none", 2
#"generic_cobalt_z",    "po4",               "po4",               "hist_control_cobalt_3d_yearly_%4yr_%2mo", "all", "mean",  "none", 2
#"generic_cobalt_z",    "srdon",             "srdon",             "hist_control_cobalt_3d_yearly_%4yr_%2mo", "all", "mean",  "none", 2
#"generic_cobalt_z",    "sldon",             "sldon",             "hist_control_cobalt_3d_yearly_%4yr_%2mo", "all", "mean",  "none", 2
#"generic_cobalt_z",    "sio4",              "sio4",              "hist_control_cobalt_3d_yearly_%4yr_%2mo", "all", "mean",  "none", 2
#"generic_cobalt_z",    "cadet_calc",        "cadet_calc",        "hist_control_cobalt_3d_yearly_%4yr_%2mo", "all", "mean",  "none", 2
#"generic_cobalt_z",    "cadet_arag",        "cadet_arag",        "hist_control_cobalt_3d_yearly_%4yr_%2mo", "all", "mean",  "none", 2
#"generic_cobalt_z",    "net_prim_prod",     "net_prim_prod",     "hist_control_cobalt_3d_yearly_%4yr_%2mo", "all", "mean",  "none", 2
#"generic_cobalt_z",    "expc",              "expc",              "hist_control_cobalt_3d_yearly_%4yr_%2mo", "all", "mean",  "none", 2
#"generic_cobalt_z",    "poc",               "poc",               "hist_control_cobalt_3d_yearly_%4yr_%2mo", "all", "mean",  "none", 2
#"generic_cobalt_z",    "pp",                "pp",                "hist_control_cobalt_3d_yearly_%4yr_%2mo", "all", "mean",  "none", 2
#"generic_cobalt_z",    "irr_inst",          "irr_inst",          "hist_control_cobalt_3d_yearly_%4yr_%2mo", "all", "mean",  "none", 2
#"generic_cobalt_z",    "irr_inst_max",      "irr_inst_max",      "hist_control_cobalt_3d_yearly_%4yr_%2mo", "all", "max",   "none", 2
#"generic_cobalt_z",    "irr_mix",           "irr_mix",           "hist_control_cobalt_3d_yearly_%4yr_%2mo", "all", "mean",  "none", 2
#"generic_cobalt_z",    "irr_mem",           "irr_mem",           "hist_control_cobalt_3d_yearly_%4yr_%2mo", "all", "mean",  "none", 2
#"generic_cobalt",      "tot_layer_int_c",   "tot_layer_int_c",   "hist_control_cobalt_3d_yearly_%4yr_%2mo", "all", "mean",  "none", 2
#"generic_cobalt",      "tot_layer_int_dic", "tot_layer_int_dic", "hist_control_cobalt_3d_yearly_%4yr_%2mo", "all", "mean",  "none", 2
#"generic_cobalt",      "tot_layer_int_doc", "tot_layer_int_doc", "hist_control_cobalt_3d_yearly_%4yr_%2mo", "all", "mean",  "none", 2
#"generic_cobalt",      "tot_layer_int_pic", "tot_layer_int_pic", "hist_control_cobalt_3d_yearly_%4yr_%2mo", "all", "mean",  "none", 2
#"generic_cobalt",      "tot_layer_int_poc", "tot_layer_int_poc", "hist_control_cobalt_3d_yearly_%4yr_%2mo", "all", "mean",  "none", 2
#"generic_cobalt",      "tot_layer_int_fe",  "tot_layer_int_fe",  "hist_control_cobalt_3d_yearly_%4yr_%2mo", "all", "mean",  "none", 2
#"generic_cobalt",      "tot_layer_int_n",   "tot_layer_int_n",   "hist_control_cobalt_3d_yearly_%4yr_%2mo", "all", "mean",  "none", 2
#"generic_cobalt",      "tot_layer_int_p",   "tot_layer_int_p",   "hist_control_cobalt_3d_yearly_%4yr_%2mo", "all", "mean",  "none", 2

#------------------------------------------------------------------------------------------
# COBALT, yearly surface fields (hist_control_cobalt_sfc_yearly_%4yr)
#------------------------------------------------------------------------------------------
"ocean_model",     "geolat",            "geolat",            "hist_control_cobalt_sfc_yearly_%4yr_%2mo", "all", .false., "none", 2
"ocean_model",     "geolon",            "geolon",            "hist_control_cobalt_sfc_yearly_%4yr_%2mo", "all", .false., "none", 2
"ocean_model",     "geolat_c",          "geolat_c",          "hist_control_cobalt_sfc_yearly_%4yr_%2mo", "all", .false., "none", 2
"ocean_model",     "geolon_c",          "geolon_c",          "hist_control_cobalt_sfc_yearly_%4yr_%2mo", "all", .false., "none", 2
"ocean_model",     "geolat_t",          "geolat_t",          "hist_control_cobalt_sfc_yearly_%4yr_%2mo", "all", .false., "none", 2
"ocean_model",     "geolon_t",          "geolon_t",          "hist_control_cobalt_sfc_yearly_%4yr_%2mo", "all", .false., "none", 2
"generic_cobalt",  "dic_csurf",         "dic_csurf",         "hist_control_cobalt_sfc_yearly_%4yr_%2mo", "all", .true.,  "none", 2
"generic_cobalt",  "dic_deltap",        "dic_deltap",        "hist_control_cobalt_sfc_yearly_%4yr_%2mo", "all", .true.,  "none", 2
"generic_cobalt",  "dic_kw",            "dic_kw",            "hist_control_cobalt_sfc_yearly_%4yr_%2mo", "all", .true.,  "none", 2
"generic_cobalt",  "dic_alpha",         "dic_alpha",         "hist_control_cobalt_sfc_yearly_%4yr_%2mo", "all", .true.,  "none", 2
"generic_cobalt",  "dic_sc_no",         "dic_sc_no",         "hist_control_cobalt_sfc_yearly_%4yr_%2mo", "all", .true.,  "none", 2
"generic_cobalt",  "pco2surf",          "pco2surf",          "hist_control_cobalt_sfc_yearly_%4yr_%2mo", "all", .true.,  "none", 2
"generic_cobalt",  "o2_csurf",          "o2_csurf",          "hist_control_cobalt_sfc_yearly_%4yr_%2mo", "all", .true.,  "none", 2
"generic_cobalt",  "o2_deltap",         "o2_deltap",         "hist_control_cobalt_sfc_yearly_%4yr_%2mo", "all", .true.,  "none", 2
"generic_cobalt",  "o2_kw",             "o2_kw",             "hist_control_cobalt_sfc_yearly_%4yr_%2mo", "all", .true.,  "none", 2
"generic_cobalt",  "o2_sc_no",          "o2_sc_no",          "hist_control_cobalt_sfc_yearly_%4yr_%2mo", "all", .true.,  "none", 2
"generic_cobalt",  "o2_alpha",          "o2_alpha",          "hist_control_cobalt_sfc_yearly_%4yr_%2mo", "all", .true.,  "none", 2
"generic_cobalt",  "dic_stf",           "dic_stf",           "hist_control_cobalt_sfc_yearly_%4yr_%2mo", "all", .true.,  "none", 2
"generic_cobalt",  "dic_stf_gas",       "dic_stf_gas",       "hist_control_cobalt_sfc_yearly_%4yr_%2mo", "all", .true.,  "none", 2
"generic_cobalt",  "o2_stf",            "o2_stf",            "hist_control_cobalt_sfc_yearly_%4yr_%2mo", "all", .true.,  "none", 2
"generic_cobalt",  "o2_stf_gas",        "o2_stf_gas",        "hist_control_cobalt_sfc_yearly_%4yr_%2mo", "all", .true.,  "none", 2
"generic_cobalt",  "alk_stf",           "alk_stf",           "hist_control_cobalt_sfc_yearly_%4yr_%2mo", "all", .true.,  "none", 2
"generic_cobalt",  "fed_stf",           "fed_stf",           "hist_control_cobalt_sfc_yearly_%4yr_%2mo", "all", .true.,  "none", 2
"generic_cobalt",  "lith_stf",          "lith_stf",          "hist_control_cobalt_sfc_yearly_%4yr_%2mo", "all", .true.,  "none", 2
"generic_cobalt",  "nh4_stf",           "nh4_stf",           "hist_control_cobalt_sfc_yearly_%4yr_%2mo", "all", .true.,  "none", 2
"generic_cobalt",  "no3_stf",           "no3_stf",           "hist_control_cobalt_sfc_yearly_%4yr_%2mo", "all", .true.,  "none", 2
"generic_cobalt",  "sfc_o2sat",         "sfc_o2sat",         "hist_control_cobalt_sfc_yearly_%4yr_%2mo", "all", .true.,  "none", 2
"generic_cobalt",  "sfc_dic",           "sfc_dic",           "hist_control_cobalt_sfc_yearly_%4yr_%2mo", "all", .true.,  "none", 2
"generic_cobalt",  "sfc_alk",           "sfc_alk",           "hist_control_cobalt_sfc_yearly_%4yr_%2mo", "all", .true.,  "none", 2
"generic_cobalt",  "sfc_fed",           "sfc_fed",           "hist_control_cobalt_sfc_yearly_%4yr_%2mo", "all", .true.,  "none", 2
"generic_cobalt",  "sfc_no3",           "sfc_no3",           "hist_control_cobalt_sfc_yearly_%4yr_%2mo", "all", .true.,  "none", 2
"generic_cobalt",  "sfc_nh4",           "sfc_nh4",           "hist_control_cobalt_sfc_yearly_%4yr_%2mo", "all", .true.,  "none", 2
"generic_cobalt",  "sfc_po4",           "sfc_po4",           "hist_control_cobalt_sfc_yearly_%4yr_%2mo", "all", .true.,  "none", 2
"generic_cobalt",  "sfc_sio4",          "sfc_sio4",          "hist_control_cobalt_sfc_yearly_%4yr_%2mo", "all", .true.,  "none", 2
"generic_cobalt",  "sfc_o2",            "sfc_o2",            "hist_control_cobalt_sfc_yearly_%4yr_%2mo", "all", .true.,  "none", 2
"generic_cobalt",  "sfc_chl",           "sfc_chl",           "hist_control_cobalt_sfc_yearly_%4yr_%2mo", "all", .true.,  "none", 2
"generic_cobalt",  "sfc_nsmp",          "sfc_nsmp",          "hist_control_cobalt_sfc_yearly_%4yr_%2mo", "all", .true.,  "none", 2
"generic_cobalt",  "sfc_nlgp",          "sfc_nlgp",          "hist_control_cobalt_sfc_yearly_%4yr_%2mo", "all", .true.,  "none", 2
"generic_cobalt",  "sfc_ndi",           "sfc_ndi",           "hist_control_cobalt_sfc_yearly_%4yr_%2mo", "all", .true.,  "none", 2
"generic_cobalt",  "intpp",             "intpp",             "hist_control_cobalt_sfc_yearly_%4yr_%2mo", "all", .true.,  "none", 2
"generic_cobalt",  "intpoc",            "intpoc",            "hist_control_cobalt_sfc_yearly_%4yr_%2mo", "all", .true.,  "none", 2
"generic_cobalt",  "sfc_ldon",          "sfc_ldon",          "hist_control_cobalt_sfc_yearly_%4yr_%2mo", "all", .true.,  "none", 2
"generic_cobalt",  "sfc_sldon",         "sfc_sldon",         "hist_control_cobalt_sfc_yearly_%4yr_%2mo", "all", .true.,  "none", 2
"generic_cobalt",  "sfc_srdon",         "sfc_srdon",         "hist_control_cobalt_sfc_yearly_%4yr_%2mo", "all", .true.,  "none", 2
"generic_cobalt",  "sfc_cadet_arag",    "sfc_cadet_arag",    "hist_control_cobalt_sfc_yearly_%4yr_%2mo", "all", .true.,  "none", 2
"generic_cobalt",  "sfc_cadet_calc",    "sfc_cadet_calc",    "hist_control_cobalt_sfc_yearly_%4yr_%2mo", "all", .true.,  "none", 2
"generic_cobalt",  "sfc_htotal",        "sfc_htotal",        "hist_control_cobalt_sfc_yearly_%4yr_%2mo", "all", .true.,  "none", 2
"generic_cobalt",  "sfc_chl_smp",       "sfc_chl_smp",       "hist_control_cobalt_sfc_yearly_%4yr_%2mo", "all", .true.,  "none", 2
"generic_cobalt",  "sfc_chl_lgp",       "sfc_chl_lgp",       "hist_control_cobalt_sfc_yearly_%4yr_%2mo", "all", .true.,  "none", 2
"generic_cobalt",  "sfc_chl_di",        "sfc_chl_di",        "hist_control_cobalt_sfc_yearly_%4yr_%2mo", "all", .true.,  "none", 2
"generic_cobalt",  "sfc_irr",           "sfc_irr",           "hist_control_cobalt_sfc_yearly_%4yr_%2mo", "all", .true.,  "none", 2
"generic_cobalt",  "sfc_irr_mem",       "sfc_irr_mem",       "hist_control_cobalt_sfc_yearly_%4yr_%2mo", "all", .true.,  "none", 2
"generic_cobalt",  "sfc_co3_ion",       "sfc_co3_ion",       "hist_control_cobalt_sfc_yearly_%4yr_%2mo", "all", .true.,  "none", 2
"generic_cobalt",  "sfc_co3_sol_arag",  "sfc_co3_sol_arag",  "hist_control_cobalt_sfc_yearly_%4yr_%2mo", "all", .true.,  "none", 2
"generic_cobalt",  "sfc_co3_sol_calc",  "sfc_co3_sol_calc",  "hist_control_cobalt_sfc_yearly_%4yr_%2mo", "all", .true.,  "none", 2
#"generic_cobalt",  "z_mig_smz",         "z_mig_smz",         "hist_control_cobalt_sfc_yearly_%4yr_%2mo", "all", "max",   "none", 2
#"generic_cobalt",  "z_mig_mdz",         "z_mig_mdz",         "hist_control_cobalt_sfc_yearly_%4yr_%2mo", "all", "max",   "none", 2
#"generic_cobalt",  "z_mig_lgz",         "z_mig_lgz",         "hist_control_cobalt_sfc_yearly_%4yr_%2mo", "all", "max",   "none", 2


#-------------------------
# ZOOPLANKTON
#-------------------------
"generic_cobalt", "jingest_n_smz_wc_vi", "jingest_n_smz_wc_vi", "hist_zooplankton_dynamics_%4yr_%2mo", "all", "mean", "none", 2
"generic_cobalt", "jmetabo_n_smz_wc_vi", "jmetabo_n_smz_wc_vi", "hist_zooplankton_dynamics_%4yr_%2mo", "all", "mean", "none", 2
"generic_cobalt", "jmetabo_bas_n_smz_wc_vi", "jmetabo_bas_n_smz_wc_vi", "hist_zooplankton_dynamics_%4yr_%2mo", "all", "mean", "none", 2
"generic_cobalt", "jmetabo_dig_n_smz_wc_vi", "jmetabo_dig_n_smz_wc_vi", "hist_zooplankton_dynamics_%4yr_%2mo", "all", "mean", "none", 2
"generic_cobalt", "jmetabo_swm_n_smz_wc_vi", "jmetabo_swm_n_smz_wc_vi", "hist_zooplankton_dynamics_%4yr_%2mo", "all", "mean", "none", 2
"generic_cobalt", "jprod_n_smz_wc_vi", "jprod_n_smz_wc_vi", "hist_zooplankton_dynamics_%4yr_%2mo", "all", "mean", "none", 2
"generic_cobalt", "jprodpos_n_smz_wc_vi", "jprodpos_n_smz_wc_vi", "hist_zooplankton_dynamics_%4yr_%2mo", "all", "mean", "none", 2
"generic_cobalt", "jmort_n_smz_wc_vi", "jmort_n_smz_wc_vi", "hist_zooplankton_dynamics_%4yr_%2mo", "all", "mean", "none", 2
"generic_cobalt", "jzloss_n_smz_wc_vi", "jzloss_n_smz_wc_vi", "hist_zooplankton_dynamics_%4yr_%2mo", "all", "mean", "none", 2
"generic_cobalt", "jhploss_n_smz_wc_vi", "jhploss_n_smz_wc_vi", "hist_zooplankton_dynamics_%4yr_%2mo", "all", "mean", "none", 2
"generic_cobalt", "jzoo_n_smz_wc_vi", "jzoo_n_smz_wc_vi", "hist_zooplankton_dynamics_%4yr_%2mo", "all", "mean", "none", 2
"generic_cobalt", "nsmz_wc_vi", "nsmz_wc_vi", "hist_zooplankton_dynamics_%4yr_%2mo", "all", "mean", "none", 2

"generic_cobalt", "jingest_n_mdz_wc_vi", "jingest_n_mdz_wc_vi", "hist_zooplankton_dynamics_%4yr_%2mo", "all", "mean", "none", 2
"generic_cobalt", "jmetabo_n_mdz_wc_vi", "jmetabo_n_mdz_wc_vi", "hist_zooplankton_dynamics_%4yr_%2mo", "all", "mean", "none", 2
"generic_cobalt", "jmetabo_bas_n_mdz_wc_vi", "jmetabo_bas_n_mdz_wc_vi", "hist_zooplankton_dynamics_%4yr_%2mo", "all", "mean", "none", 2
"generic_cobalt", "jmetabo_dig_n_mdz_wc_vi", "jmetabo_dig_n_mdz_wc_vi", "hist_zooplankton_dynamics_%4yr_%2mo", "all", "mean", "none", 2
"generic_cobalt", "jmetabo_swm_n_mdz_wc_vi", "jmetabo_swm_n_mdz_wc_vi", "hist_zooplankton_dynamics_%4yr_%2mo", "all", "mean", "none", 2